/*--------------------------------*- C++ -*----------------------------------*\
  =========                 |
  \\      /  F ield         | OpenFOAM: The Open Source CFD Toolbox
   \\    /   O peration     | Website:  https://openfoam.org
    \\  /    A nd           | Version:  9
     \\/     M anipulation  |
\*---------------------------------------------------------------------------*/
FoamFile
{
    format      ascii;
    class       volScalarField;
    location    "0";
    object      p;
}
// * * * * * * * * * * * * * * * * * * * * * * * * * * * * * * * * * * * * * //

dimensions      [1 -1 -2 0 0 0 0];

internalField   uniform 0;

boundaryField
{
    inletSmall
	{
        type            fixedFluxPressure;
        value           uniform 0;
    }
    inletLarge
	{
        type            fixedFluxPressure;
        value           uniform 0;
    }
	wall
	{
        type            fixedFluxPressure;
        value           uniform 0;
    }
    outlet
    {
        type            totalPressure;
        p0              $internalField;
    }
    frontAndBack
    {
        type            empty;
    }
}


// ************************************************************************* //
