/*--------------------------------*- C++ -*----------------------------------*\
  =========                 |
  \\      /  F ield         | OpenFOAM: The Open Source CFD Toolbox
   \\    /   O peration     | Website:  https://openfoam.org
    \\  /    A nd           | Version:  9
     \\/     M anipulation  |
\*---------------------------------------------------------------------------*/
FoamFile
{
    format      ascii;
    class       dictionary;
    location    "constant";
    object      thermophysicalTransport;
}
// * * * * * * * * * * * * * * * * * * * * * * * * * * * * * * * * * * * * * //

laminar
{
    model FickianFourier;

    mixtureDiffusionCoefficients yes;

    Dm
    {
        H       9.3e-9;
        OH      5.3e-9;
        H2O     2.3e-9;
        Na      1.33e-9;
        Cl      2.03e-9;
        HCl     1.7e-9;
        NaOH    1.2e-9;
    }
}
/*
{
    model Fickian;

    mixtureDiffusionCoefficients yes;

    Dm
    {
        H     9.3e-9;
        OH    5.3e-9;
        H2O   2.3e-9;
    }
}
*/
// ************************************************************************* //
